LTspice 24.0.12 for Windows
Circuit: * Z:\home\bean\RadioNotes\10_meter_amplifier_filter.asc
Start Time: Tue Nov 19 16:21:39 2024
Warning: Multiple definitions of model "2scr375p" Type: BJT
Warning: Multiple definitions of model "bc857b" Type: BJT
Warning: Multiple definitions of model "bc847c" Type: BJT
Warning: Multiple definitions of model "bc847b" Type: BJT
l7: both pins shorted together -- ignoring.
c12: both pins shorted together -- ignoring.
rload: both pins shorted together -- ignoring.
solver = Normal
Maximum thread count: 20
tnom = 27
temp = 27
method = modified trap
WARNING: Node N019 is floating.
WARNING: Node N020 is floating.

Direct Newton iteration for .op point succeeded.
Total elapsed time: 8.191 seconds.

