LTspice 24.0.12 for Windows
Circuit: * Z:\home\bean\RadioNotes\10_meter_amplifier_filter.asc
Start Time: Tue Nov 19 10:15:03 2024
Warning: Multiple definitions of model "2scr375p" Type: BJT
Warning: Multiple definitions of model "bc857b" Type: BJT
Warning: Multiple definitions of model "bc847c" Type: BJT
Warning: Multiple definitions of model "bc847b" Type: BJT
solver = Normal
Maximum thread count: 20
tnom = 27
temp = 27
method = modified trap
Direct Newton iteration for .op point succeeded.
Total elapsed time: 1.702 seconds.

