LTspice 24.0.12 for Windows
Circuit: * Z:\home\bean\RadioNotes\10m_from_pi_filter_amp.asc
Start Time: Mon Nov 18 13:33:37 2024
solver = Normal
Maximum thread count: 20
tnom = 27
temp = 27
method = modified trap
.OP point found by inspection.
Total elapsed time: 1.765 seconds.

