LTspice 24.0.12 for Windows
Circuit: * Z:\home\bean\RadioNotes\28mhz_class_e_latest.asc
Start Time: Fri Jul 25 22:59:24 2025
Warning: Multiple definitions of model "2scr375p" Type: BJT
Warning: Multiple definitions of model "bc857b" Type: BJT
Warning: Multiple definitions of model "bc847c" Type: BJT
Warning: Multiple definitions of model "bc847b" Type: BJT
solver = Normal
Maximum thread count: 20



WARNING: Node N012 is floating.

.OP point found by inspection.
.step freq=28000000



.step freq=28050000



.step freq=28100000



.step freq=28150000



.step freq=28200000



.step freq=28250000



.step freq=28300000



.step freq=28350000



.step freq=28400000



.step freq=28450000
tnom = 27
temp = 27
method = modified trap
.step freq=28500000
Total elapsed time: 80.202 seconds.

