LTspice 24.0.12 for Windows
Circuit: * Z:\home\bean\RadioNotes\28mhz_class_e_latest.asc
Start Time: Sat Aug  2 17:18:14 2025
Warning: Multiple definitions of model "2scr375p" Type: BJT
Warning: Multiple definitions of model "bc857b" Type: BJT
Warning: Multiple definitions of model "bc847c" Type: BJT
Warning: Multiple definitions of model "bc847b" Type: BJT
solver = Normal
Maximum thread count: 20
tnom = 27
temp = 37
method = modified trap
WARNING: Node N011 is floating.
WARNING: Node NC_01 is floating.

WARNING: Less than two connections to node nc_01.  This node is used by c12.
.OP point found by inspection.
Total elapsed time: 583.117 seconds.

