LTspice 24.0.12 for Windows
Circuit: * Z:\home\bean\RadioNotes\28mhz_class_e_new.asc
Start Time: Fri Aug  1 20:00:36 2025
solver = Normal
Maximum thread count: 20
tnom = 27
temp = 37
method = modified trap
WARNING: Node N007 is floating.

WARNING: Less than two connections to node u1:30.  This node is used by r:u1:s.
WARNING: Less than two connections to node u1:20.  This node is used by r:u1:g.
Instance "m:u1:1": Width narrower than recommended for a level 3 MOSFET.
.OP point found by inspection.
Total elapsed time: 8.279 seconds.

