LTspice 24.0.12 for Windows
Circuit: * Z:\home\bean\RadioNotes\28mhz_class_e_latest.asc
Start Time: Sat Jul 26 14:36:09 2025
Warning: Multiple definitions of model "2scr375p" Type: BJT
Warning: Multiple definitions of model "bc857b" Type: BJT
Warning: Multiple definitions of model "bc847c" Type: BJT
Warning: Multiple definitions of model "bc847b" Type: BJT
solver = Normal
Maximum thread count: 20
tnom = 27
temp = 27
method = modified trap
WARNING: Node N012 is floating.

.OP point found by inspection.
Total elapsed time: 7.307 seconds.

