LTspice 24.0.12 for Windows
Circuit: * Z:\home\bean\RadioNotes\28mhz_class_e_for_new_board.asc
Start Time: Tue Aug 12 18:58:32 2025
Warning: Multiple definitions of model "2scr375p" Type: BJT
Warning: Multiple definitions of model "bc857b" Type: BJT
Warning: Multiple definitions of model "bc847c" Type: BJT
Warning: Multiple definitions of model "bc847b" Type: BJT
solver = Normal
Maximum thread count: 20
tnom = 27
temp = 37
method = modified trap
.OP point found by inspection.
Heightened Def Con from 0.000400831 to 0.000400831
Total elapsed time: 50.814 seconds.

