LTspice 24.0.12 for Windows
Circuit: * Z:\home\bean\RadioNotes\28mhz_class_e_latest.asc
Start Time: Fri Jul 25 13:14:07 2025
Warning: Multiple definitions of model "2scr375p" Type: BJT
Warning: Multiple definitions of model "bc857b" Type: BJT
Warning: Multiple definitions of model "bc847c" Type: BJT
Warning: Multiple definitions of model "bc847b" Type: BJT
solver = Normal
Maximum thread count: 20
tnom = 27
temp = 27
method = modified trap
WARNING: Node NC_02 is floating.
WARNING: Node N007 is floating.

WARNING: Less than two connections to node nc_01.  This node is used by l2.
WARNING: Less than two connections to node nc_02.  This node is used by l2.
.OP point found by inspection.
Total elapsed time: 1.795 seconds.

