LTspice 24.0.12 for Windows
Circuit: * Z:\home\bean\RadioNotes\28mhz_class_e_latest.asc
Start Time: Sat Jul 19 11:10:33 2025
solver = Normal
Maximum thread count: 20
tnom = 27
temp = 27
method = modified trap
WARNING: Node NC_02 is floating.
WARNING: Node N019 is floating.
WARNING: Node N007 is floating.
WARNING: Node N021 is floating.

WARNING: Less than two connections to node nc_01.  This node is used by l2.
WARNING: Less than two connections to node nc_02.  This node is used by l2.
WARNING: Less than two connections to node nc_03.  This node is used by rload.
WARNING: Less than two connections to node nc_04.  This node is used by r4.
WARNING: Less than two connections to node nc_05.  This node is used by r8.
.OP point found by inspection.
Total elapsed time: 2.769 seconds.

