LTspice 24.0.12 for Windows
Circuit: * Z:\home\bean\RadioNotes\cascode.asc
Start Time: Mon Aug  4 19:48:45 2025
Warning: Multiple definitions of model "2scr375p" Type: BJT
Warning: Multiple definitions of model "bc857b" Type: BJT
Warning: Multiple definitions of model "bc847c" Type: BJT
Warning: Multiple definitions of model "bc847b" Type: BJT
solver = Normal
Maximum thread count: 20
tnom = 27
temp = 27
method = modified trap
WARNING: Node N013 is floating.
WARNING: Node NC_02 is floating.

WARNING: Less than two connections to node n013.  This node is used by c4.
WARNING: Less than two connections to node nc_01.  This node is used by v2.
WARNING: Less than two connections to node nc_02.  This node is used by v2.
Direct Newton iteration for .op point succeeded.
Heightened Def Con from 0.000105842 to 0.000105842
Total elapsed time: 6.163 seconds.

