LTspice 24.0.12 for Windows
Circuit: * Z:\home\bean\RadioNotes\cascode.asc
Start Time: Sun Aug  3 12:55:25 2025
Warning: Multiple definitions of model "2scr375p" Type: BJT
Warning: Multiple definitions of model "bc857b" Type: BJT
Warning: Multiple definitions of model "bc847c" Type: BJT
Warning: Multiple definitions of model "bc847b" Type: BJT
solver = Normal
Maximum thread count: 20
tnom = 27
temp = 27
method = modified trap
WARNING: Node N012 is floating.

WARNING: Less than two connections to node nc_01.  This node is used by v1.
WARNING: Less than two connections to node n012.  This node is used by c4.
Direct Newton iteration for .op point succeeded.
Total elapsed time: 18.436 seconds.

