LTspice 24.0.12 for Windows
Circuit: * Z:\home\bean\RadioNotes\class_e_10mhz_opt2_real_components.asc
Start Time: Tue Nov 19 02:43:34 2024
solver = Normal
Maximum thread count: 20
tnom = 27
temp = 27
method = modified trap
Limiting rise time of source vgen to 1.281e-09
Limiting fall time of source vgen to 1.281e-09
.OP point found by inspection.
Total elapsed time: 6.367 seconds.

