LTspice 24.0.12 for Windows
Circuit: * Z:\home\bean\RadioNotes\class_e_from_online_modified_to_10mhz.asc
Start Time: Mon Nov 18 21:34:52 2024
solver = Normal
Maximum thread count: 20
tnom = 27
temp = 27
method = modified trap
Direct Newton iteration for .op point succeeded.
Total elapsed time: 21.950 seconds.

