LTspice 24.0.12 for Windows
Circuit: * Z:\home\bean\RadioNotes\class_e_10m_june_11_2025_bs170maybe.asc
Start Time: Thu Jun 12 12:46:15 2025
