LTspice 24.0.12 for Windows
Circuit: * Z:\home\bean\RadioNotes\class_e_10mhz_optimized_ideal_components.asc
Start Time: Tue Nov 19 01:52:10 2024
solver = Normal
Maximum thread count: 20
tnom = 27
temp = 27
method = modified trap
.OP point found by inspection.
Total elapsed time: 1.238 seconds.

