LTspice 24.0.12 for Windows
Circuit: * Z:\home\bean\RadioNotes\class_e_10mhz.asc
Start Time: Mon Nov 18 23:24:22 2024
solver = Normal
Maximum thread count: 20
tnom = 27
temp = 27
method = modified trap
WARNING: Node N005 is floating.

WARNING: Less than two connections to node nc_01.  This node is used by rload.
Direct Newton iteration for .op point succeeded.
Total elapsed time: 36.478 seconds.

