LTspice 24.0.12 for Windows
Circuit: * Z:\home\bean\RadioNotes\Draft2.asc
Start Time: Thu Jul 24 15:32:46 2025
Warning: Multiple definitions of model "2scr375p" Type: BJT
Warning: Multiple definitions of model "bc857b" Type: BJT
Warning: Multiple definitions of model "bc847c" Type: BJT
Warning: Multiple definitions of model "bc847b" Type: BJT
solver = Normal
Maximum thread count: 20
tnom = 27
temp = 27
method = modified trap
WARNING: Less than two connections to node nc_01.  This node is used by q2.
Direct Newton iteration for .op point succeeded.
Total elapsed time: 0.105 seconds.

