LTspice 24.0.12 for Windows
Circuit: * Z:\home\bean\RadioNotes\Draft1.asc
Start Time: Tue Nov 19 18:59:07 2024
