LTspice 24.0.12 for Windows
Circuit: * Z:\home\bean\RadioNotes\Draft2.asc
Start Time: Tue Jun 10 13:28:15 2025
solver = Normal
Maximum thread count: 20
tnom = 27
temp = 27
method = modified trap
Direct Newton iteration for .op point succeeded.
Total elapsed time: 0.193 seconds.

