LTspice 24.0.12 for Windows
Circuit: * Z:\home\bean\RadioNotes\Draft5.asc
Start Time: Fri Jul 25 22:54:09 2025
Warning: Multiple definitions of model "2scr375p" Type: BJT
Warning: Multiple definitions of model "bc857b" Type: BJT
Warning: Multiple definitions of model "bc847c" Type: BJT
Warning: Multiple definitions of model "bc847b" Type: BJT
solver = Normal
Maximum thread count: 20
tnom = 27
temp = 27
method = modified trap
WARNING: Node NC_01 is floating.

WARNING: Less than two connections to node nc_01.  This node is used by c1.
Direct Newton iteration for .op point succeeded.
Total elapsed time: 1.195 seconds.

