LTspice 24.0.12 for Windows
Circuit: * Z:\home\bean\RadioNotes\first_stage_10_meter_before_class_e.asc
Start Time: Wed Nov 20 09:02:08 2024
Warning: Multiple definitions of model "2scr375p" Type: BJT
Warning: Multiple definitions of model "bc857b" Type: BJT
Warning: Multiple definitions of model "bc847c" Type: BJT
Warning: Multiple definitions of model "bc847b" Type: BJT
solver = Normal
Maximum thread count: 20
tnom = 27
temp = 27
method = modified trap
WARNING: Node NC_02 is floating.

WARNING: Less than two connections to node nc_01.  This node is used by r9.
WARNING: Less than two connections to node nc_02.  This node is used by c2.
Direct Newton iteration for .op point succeeded.
Ignoring empty pin current: Ix(u1:1)
Ignoring empty pin current: Ix(u1:2)
Ignoring empty pin current: Ix(u1:1)
Ignoring empty pin current: Ix(u1:2)
Total elapsed time: 1.081 seconds.

